LTspice 26.0.1 for Windows
Circuit: C:\Users\krys1\Desktop\studia\sem6\PZE\projekt\v2.net
Start Time: Thu Apr  2 16:28:02 2026
solver = Normal
Maximum thread count: 12
tnom = 27
temp = 27
method = trap
Direct Newton iteration succeeded in finding operating point.
Total elapsed time: 0.051 seconds.

Files loaded:
C:\Users\krys1\Desktop\studia\sem6\PZE\projekt\v2.net
C:\Users\krys1\AppData\Local\LTspice\lib\cmp\standard.dio
C:\Users\krys1\AppData\Local\LTspice\lib\cmp\standard.bjt

