LTspice 26.0.1 for Windows
Circuit: C:\Users\krys1\Desktop\studia\sem6\PZE\projekt\v3.net
Start Time: Thu Apr  2 16:31:20 2026
solver = Normal
Maximum thread count: 12
tnom = 27
temp = 27
method = trap
Total elapsed time: 0.048 seconds.

Files loaded:
C:\Users\krys1\Desktop\studia\sem6\PZE\projekt\v3.net
C:\Users\krys1\AppData\Local\LTspice\lib\cmp\standard.dio
C:\Users\krys1\AppData\Local\LTspice\lib\cmp\standard.bjt

